Version 4
SHEET 1 1724 1268
WIRE -736 -704 -768 -704
WIRE 144 -704 -736 -704
WIRE -304 -608 -400 -608
WIRE 144 -608 144 -704
WIRE -304 -576 -304 -608
WIRE -256 -576 -304 -576
WIRE -32 -560 -192 -560
WIRE 96 -560 -32 -560
WIRE -256 -544 -304 -544
WIRE -768 -480 -768 -704
WIRE -304 -464 -304 -544
WIRE -304 -464 -400 -464
WIRE 144 -400 144 -512
WIRE 240 -400 144 -400
WIRE 368 -400 320 -400
WIRE 576 -400 448 -400
WIRE 672 -400 576 -400
WIRE 736 -400 672 -400
WIRE 576 -336 576 -400
WIRE 736 -304 736 -400
WIRE 576 -256 576 -272
WIRE 144 -240 144 -400
WIRE 576 -128 576 -176
WIRE 656 -128 576 -128
WIRE 736 -128 736 -224
WIRE 736 -128 656 -128
WIRE -768 -96 -768 -400
WIRE 144 -96 144 -176
WIRE 656 -96 656 -128
FLAG -768 -96 0
FLAG 656 -96 0
FLAG 672 -400 o
FLAG 144 -96 0
FLAG -736 -704 dc
FLAG -32 -560 pwm
SYMBOL voltage -768 -496 R0
WINDOW 123 0 0 Left 2
WINDOW 39 0 0 Left 2
WINDOW 0 48 32 Left 2
WINDOW 3 48 73 Left 2
SYMATTR InstName V1
SYMATTR Value 10
SYMBOL cap 560 -336 R0
WINDOW 0 -57 7 Left 2
WINDOW 3 -60 42 Left 2
SYMATTR InstName C1
SYMATTR Value 33µ
SYMBOL res 720 -320 R0
SYMATTR InstName R8
SYMATTR Value 1
SYMBOL ind2 224 -384 R270
WINDOW 0 32 56 VTop 2
WINDOW 3 5 56 VBottom 2
SYMATTR InstName L1
SYMATTR Value 10µ
SYMATTR Type ind
SYMBOL res 464 -416 R90
WINDOW 0 0 56 VBottom 2
WINDOW 3 32 56 VTop 2
SYMATTR InstName R1
SYMATTR Value 0.05
SYMBOL res 560 -272 R0
SYMATTR InstName R3
SYMATTR Value 0.1
SYMBOL Control\\sawtooth -432 -464 R0
WINDOW 3 1 100 Bottom 2
WINDOW 123 -2 66 Bottom 2
SYMATTR Value2 f=200k
SYMATTR InstName U2
SYMBOL Control\\comp -224 -560 R0
WINDOW 3 -10 38 Left 2
WINDOW 123 -7 65 Left 2
SYMATTR Value Vhigh=1
SYMATTR Value2 Vlow=0
SYMATTR InstName U3
SYMBOL Control\\constant -432 -608 R0
WINDOW 3 -3 62 Bottom 2
SYMATTR Value K=0.53
SYMATTR InstName U4
SYMBOL Control\\switch 144 -560 R0
WINDOW 0 50 -38 Left 2
WINDOW 38 39 -13 Left 2
WINDOW 123 34 19 Left 2
WINDOW 3 34 47 Left 2
SYMATTR InstName U1
SYMBOL Control\\idiode 160 -176 R180
WINDOW 0 -42 64 Left 2
WINDOW 38 -78 30 Left 2
WINDOW 3 54 36 Left 2
WINDOW 123 45 6 Left 2
SYMATTR InstName U6
TEXT 328 -696 Left 2 !.tran 0 500u 0 0.1u uic
