Version 4
SHEET 1 1724 1268
WIRE -736 -704 -768 -704
WIRE 144 -704 -736 -704
WIRE -224 -608 -320 -608
WIRE 144 -608 144 -704
WIRE -768 -576 -768 -704
WIRE -224 -576 -224 -608
WIRE -176 -576 -224 -576
WIRE 32 -560 -112 -560
WIRE 96 -560 32 -560
WIRE -176 -544 -224 -544
WIRE -224 -464 -224 -544
WIRE -224 -464 -320 -464
WIRE -768 -416 -768 -496
WIRE 144 -400 144 -512
WIRE 240 -400 144 -400
WIRE 368 -400 320 -400
WIRE 576 -400 448 -400
WIRE 672 -400 576 -400
WIRE 736 -400 672 -400
WIRE 576 -368 576 -400
WIRE 144 -320 144 -400
WIRE 736 -320 736 -400
WIRE 576 -288 576 -304
WIRE -768 -272 -768 -336
WIRE -704 -256 -752 -256
WIRE -688 -256 -704 -256
WIRE 576 -160 576 -208
WIRE 656 -160 576 -160
WIRE 736 -160 736 -240
WIRE 736 -160 656 -160
WIRE -768 -128 -768 -240
WIRE 144 -128 144 -256
WIRE 656 -128 656 -160
FLAG -768 -128 0
FLAG 656 -128 0
FLAG 672 -400 o
FLAG 144 -128 0
FLAG 32 -560 pwm
FLAG -704 -256 in
FLAG -736 -704 out
SYMBOL voltage -768 -432 R0
WINDOW 123 0 0 Left 2
WINDOW 39 0 0 Left 2
WINDOW 0 48 32 Left 2
WINDOW 3 48 73 Left 2
SYMATTR InstName V1
SYMATTR Value 10
SYMBOL cap 560 -368 R0
WINDOW 0 -57 7 Left 2
WINDOW 3 -60 42 Left 2
SYMATTR InstName C1
SYMATTR Value 33µ
SYMBOL res 720 -336 R0
SYMATTR InstName R8
SYMATTR Value 1
SYMBOL ind2 224 -384 R270
WINDOW 0 32 56 VTop 2
WINDOW 3 5 56 VBottom 2
SYMATTR InstName L1
SYMATTR Value 10µ
SYMATTR Type ind
SYMBOL res 464 -416 R90
WINDOW 0 0 56 VBottom 2
WINDOW 3 32 56 VTop 2
SYMATTR InstName R1
SYMATTR Value 0.05
SYMBOL res 560 -304 R0
SYMATTR InstName R3
SYMATTR Value 0.1
SYMBOL Control\\sawtooth -352 -464 R0
WINDOW 3 1 100 Bottom 2
WINDOW 123 -2 66 Bottom 2
SYMATTR Value2 f=200k
SYMATTR InstName U2
SYMBOL Control\\comp -144 -560 R0
WINDOW 3 -10 38 Left 2
WINDOW 123 -7 65 Left 2
SYMATTR Value Vhigh=1
SYMATTR Value2 Vlow=0
SYMATTR InstName U3
SYMBOL Control\\constant -352 -608 R0
WINDOW 3 -3 62 Bottom 2
SYMATTR Value K=0.53
SYMATTR InstName U4
SYMBOL voltage -768 -592 R0
WINDOW 0 -123 41 Left 2
WINDOW 3 -241 98 Left 2
WINDOW 123 0 0 Left 0
WINDOW 39 0 0 Left 0
SYMATTR InstName Vsin1
SYMATTR Value SINE(0 2 {Freq})
SYMBOL Control\\isense -768 -256 R270
WINDOW 0 -16 -52 VTop 2
SYMATTR InstName U1
SYMBOL Control\\switch 144 -560 R0
WINDOW 0 50 -38 Left 2
WINDOW 38 39 -13 Left 2
WINDOW 123 34 19 Left 2
WINDOW 3 34 47 Left 2
SYMATTR InstName U6
SYMBOL Control\\idiode 160 -256 R180
WINDOW 0 -42 64 Left 2
WINDOW 38 -78 30 Left 2
WINDOW 3 54 36 Left 2
WINDOW 123 45 6 Left 2
SYMATTR InstName U7
TEXT -664 80 Left 2 !.measure Aavg              avg       V(out)                                                                ; average output voltage\n.measure Bavg              avg       V(in)                                                                   ; average input signal\n.measure Are                  avg       2*(V(out)-Aavg)*cos(360*Freq*time)      ; A real part\n.measure Aim                 avg       2*(V(out)-Aavg)*sin(360*Freq*time)        ; A imag part\n.measure Bre                  avg       2*(V(in)-Bavg)*cos(360*Freq*time)         ; B real part\n.measure Bim                 avg        2*(V(in)-Bavg)*sin(360*Freq*time)          ; B imag part\n.measure Amag             param   hypot(Are,Aim)                                              ; A magnitude\n.measure Bmag             param   hypot(Bre,Bim)                                              ; B magnitude\n.measure Aphi                param   atan2(Aim, Are)                                             ; A phase\n.measure Bphi                param   atan2(Bim, Bre)                                             ; B phase\n.measure GainMag       param    20*log10(Amag/Bmag)                              ; Gain magnitude\n.measure GainPhi          param    Bphi - Aphi                                                       ; Gain phase
TEXT -232 -48 Left 2 !.save V(out) V(in)\n.option numdgt=15   ; double precision for data\n.option nomarch       ; do not plot marching waveforms
TEXT -712 -40 Left 2 !.step dec param Freq 100 200k 20
TEXT -632 -208 Left 2 !.param t0=1m\n.tran 0 {t0+5/Freq} {t0} 0.1u
TEXT -632 -136 Left 2 !.options reltol=1m
