Version 4
SHEET 1 1096 680
WIRE -176 -528 -336 -528
WIRE -128 -528 -176 -528
WIRE -336 -464 -336 -528
WIRE -336 -336 -336 -384
WIRE -320 -208 -352 -208
WIRE -128 -208 -320 -208
WIRE 80 -208 -48 -208
WIRE 112 -208 80 -208
WIRE 240 -208 112 -208
WIRE 368 -208 320 -208
WIRE 512 -208 448 -208
WIRE 608 -208 512 -208
WIRE 656 -208 608 -208
WIRE 512 -176 512 -208
WIRE 656 -128 656 -208
WIRE -352 -112 -352 -208
WIRE 80 -112 80 -208
WIRE 512 -80 512 -112
WIRE -352 48 -352 -32
WIRE 80 48 80 -32
WIRE 80 48 -352 48
WIRE 512 48 512 0
WIRE 512 48 80 48
WIRE 656 48 656 -48
WIRE 656 48 512 48
WIRE -352 96 -352 48
FLAG -352 96 0
FLAG 608 -208 o
FLAG 112 -208 sq
FLAG -336 -336 0
FLAG -176 -528 d
FLAG -320 -208 b
SYMBOL cap 496 -176 R0
SYMATTR InstName C1
SYMATTR Value 33µ
SYMBOL voltage -352 -128 R0
WINDOW 123 0 0 Left 0
WINDOW 39 0 0 Left 0
SYMATTR InstName V1
SYMATTR Value 10
SYMBOL res 640 -144 R0
SYMATTR InstName R1
SYMATTR Value 1
SYMBOL res 496 -96 R0
SYMATTR InstName R2
SYMATTR Value 0.1
SYMBOL res 464 -224 R90
WINDOW 0 0 56 VBottom 2
WINDOW 3 32 56 VTop 2
SYMATTR InstName R3
SYMATTR Value 0.05
SYMBOL Misc\\Gpoly -32 -208 R90
WINDOW 0 62 56 VBottom 2
WINDOW 3 62 55 VTop 2
SYMATTR InstName Gs
SYMATTR Value value = {v(d)*i(L1)}
SYMBOL voltage -336 -480 R0
WINDOW 123 0 0 Left 0
WINDOW 39 0 0 Left 0
SYMATTR InstName V2
SYMATTR Value 0.53
SYMBOL Misc\\Epoly 80 -128 R0
WINDOW 0 48 44 Left 2
WINDOW 3 41 72 Left 2
SYMATTR InstName Ed
SYMATTR Value value={v(d)*V(b)}
SYMBOL ind 224 -192 R270
WINDOW 0 32 56 VTop 2
WINDOW 3 5 56 VBottom 2
SYMATTR InstName L1
SYMATTR Value {L}
TEXT -120 -416 Left 2 !.tran 1m uic
TEXT 232 -416 Left 2 !.param L=10u\n.param f=100k
