Version 4
SHEET 1 1964 820
WIRE -192 -480 -352 -480
WIRE -144 -480 -192 -480
WIRE 224 -480 48 -480
WIRE 320 -480 224 -480
WIRE 48 -432 48 -480
WIRE -352 -416 -352 -480
WIRE -352 -288 -352 -336
WIRE 48 -288 48 -352
WIRE -320 -208 -352 -208
WIRE -128 -208 -320 -208
WIRE 80 -208 -48 -208
WIRE 112 -208 80 -208
WIRE 240 -208 112 -208
WIRE 368 -208 320 -208
WIRE 512 -208 448 -208
WIRE 608 -208 512 -208
WIRE 656 -208 608 -208
WIRE -352 -160 -352 -208
WIRE 512 -128 512 -208
WIRE 656 -80 656 -208
WIRE -352 -48 -352 -80
WIRE 80 -48 80 -208
WIRE 512 -16 512 -64
WIRE -352 80 -352 32
WIRE -288 96 -336 96
WIRE -240 96 -288 96
WIRE -352 144 -352 112
WIRE 80 144 80 32
WIRE 80 144 -352 144
WIRE 512 144 512 64
WIRE 512 144 80 144
WIRE 656 144 656 0
WIRE 656 144 512 144
WIRE -352 192 -352 144
FLAG -352 192 0
FLAG 608 -208 o
FLAG 112 -208 sq
FLAG -352 -288 0
FLAG -192 -480 d
FLAG -320 -208 b
FLAG -288 96 in
FLAG 48 -288 0
FLAG 224 -480 out
SYMBOL cap 496 -128 R0
SYMATTR InstName C1
SYMATTR Value 33µ
SYMBOL voltage -352 -64 R0
WINDOW 123 0 0 Left 0
WINDOW 39 0 0 Left 0
WINDOW 0 51 39 Left 2
WINDOW 3 49 69 Left 2
SYMATTR InstName V1
SYMATTR Value 10
SYMBOL res 640 -96 R0
SYMATTR InstName R1
SYMATTR Value 1
SYMBOL res 496 -32 R0
SYMATTR InstName R2
SYMATTR Value 0.1
SYMBOL res 464 -224 R90
WINDOW 0 0 56 VBottom 2
WINDOW 3 32 56 VTop 2
SYMATTR InstName R3
SYMATTR Value 0.05
SYMBOL Misc\\Gpoly -32 -208 R90
WINDOW 0 62 56 VBottom 2
WINDOW 3 62 55 VTop 2
SYMATTR InstName Gs
SYMATTR Value value = {v(d)*i(L1)}
SYMBOL voltage -352 -432 R0
WINDOW 123 0 0 Left 0
WINDOW 39 0 0 Left 0
SYMATTR InstName V2
SYMATTR Value 0.53
SYMBOL Misc\\Epoly 80 -64 R0
WINDOW 0 48 44 Left 2
WINDOW 3 41 72 Left 2
SYMATTR InstName Ed
SYMATTR Value value={v(d)*V(b)}
SYMBOL ind 224 -192 R270
WINDOW 0 32 56 VTop 2
WINDOW 3 5 56 VBottom 2
SYMATTR InstName L1
SYMATTR Value 10µ
SYMBOL voltage -352 -176 R0
WINDOW 0 -123 41 Left 2
WINDOW 3 -241 98 Left 2
WINDOW 123 0 0 Left 0
WINDOW 39 0 0 Left 0
SYMATTR InstName Vsin1
SYMATTR Value SINE(0 1 {Freq})
SYMBOL Control\\isense -352 96 R270
WINDOW 0 -16 -52 VTop 2
SYMATTR InstName U1
SYMBOL Misc\\Epoly 48 -448 R0
WINDOW 0 48 44 Left 2
WINDOW 3 41 72 Left 2
SYMATTR InstName Eb
SYMATTR Value value={V(b)}
TEXT 768 -344 Left 2 !.param t0=1m\n.tran 0 {t0+5/Freq} {t0} 0.1u
TEXT 768 -272 Left 2 !.options reltol=1m
TEXT 768 -64 Left 2 !.measure Aavg              avg       V(out)                                                                ; average output voltage\n.measure Bavg              avg       V(in)                                                                   ; average input signal\n.measure Are                  avg       2*(V(out)-Aavg)*cos(360*Freq*time)      ; A real part\n.measure Aim                 avg       2*(V(out)-Aavg)*sin(360*Freq*time)        ; A imag part\n.measure Bre                  avg       2*(V(in)-Bavg)*cos(360*Freq*time)         ; B real part\n.measure Bim                 avg        2*(V(in)-Bavg)*sin(360*Freq*time)          ; B imag part\n.measure Amag             param   hypot(Are,Aim)                                              ; A magnitude\n.measure Bmag             param   hypot(Bre,Bim)                                              ; B magnitude\n.measure Aphi                param   atan2(Aim, Are)                                             ; A phase\n.measure Bphi                param   atan2(Bim, Bre)                                             ; B phase\n.measure GainMag       param    20*log10(Amag/Bmag)                              ; Gain magnitude\n.measure GainPhi          param    Bphi - Aphi                                                       ; Gain phase
TEXT 1288 -192 Left 2 !.save V(out) V(in)\n.option numdgt=15   ; double precision for data\n.option nomarch       ; do not plot marching waveforms
TEXT 768 -184 Left 2 !.step dec param Freq 100 200k 20
